16

C          0.34830        1.52500        0.01370
C         -0.86710        0.84120       -0.00710
C         -0.89940       -0.55790       -0.02050
C          0.28290       -1.29790       -0.01820
C          1.48840       -0.61540        0.14540
C          1.52080        0.78380        0.16370
H         -1.80470        1.38940       -0.00340
H         -1.86160       -1.06240       -0.02430
H          2.41720       -1.16540        0.27060
H          2.47290        1.28720        0.30510
N          0.37220        2.92020        0.12680
H          1.24760        3.33520       -0.17660
H         -0.43090        3.37250       -0.29890
N          0.24170       -2.69470        0.06350
H          1.09540       -3.14390       -0.25380
H         -0.58390       -3.09870       -0.36820


